* 2N3866 NPN Si;55.0V  0.40A  500MHz
.MODEL 2N3866 NPN (IS=13.232p BF=1.2948E3 VAF=100 IKF=.13116 ISE=785.43p NE=1.7362 BR=1.0408 VAR=100 IKR=3.3880 ISC=13.232p NC=1.4860 RB=8.9057 RC=1.7862 CJE=31.375p VJE=.87558 MJE=.31831 CJC=7.3p VJC=.76419 MJC=.30725 TF=178.96p XTF=10.044 VTF=10.275 ITF=5.8742 TR=10n)

.model 2N5087 PNP (IS=6.734f BF=254.1 VAF=45.7 IKF=.1962 ISE=6.734f NE=1.741 BR=2.683 IKR=0 ISC=0 NC=2 RB=10 RC=1.67 CJE=7.5p VJE=.75 MJE=.2861 CJC=6.2p VJC=.75 MJC=.301 TF=467.8p XTF=8 VTF=5 ITF=.17 Tr=10.1n Xti=3 Eg=1.11 Xtb=1.5 Fc=.5)
