v 20151204 2
P 400 300 200 300 1 0 1
{
T 300 400 5 10 0 1 0 0 1
pinseq=1
T 300 400 5 10 0 1 0 0 1
pinnumber=1
T 300 400 5 10 1 1 0 0 1
pinlabel=1
T 200 250 5 8 0 1 0 8 1
pintype=pas
}
T 850 450 8 10 0 1 0 0 1
device=spice-subcircuit-IO
T 850 250 8 10 1 1 0 0 1
refdes=P?
L 500 400 400 300 3 0 0 0 -1 -1
L 500 200 400 300 3 0 0 0 -1 -1
L 500 400 700 400 3 0 0 0 -1 -1
T 188 97 9 6 1 0 0 0 1
.SUBCKT IO Pin
L 500 200 700 200 3 0 0 0 -1 -1
L 800 300 700 400 3 0 0 0 -1 -1
L 800 300 700 200 3 0 0 0 -1 -1
T 900 100 8 10 0 1 0 0 1
footprint=none
T 850 450 8 10 0 1 0 0 1
description=spice-subcircuit-IO
